Test_Network/condensed/network_1/Feeder_3/Lines.txt
New Line.LINE75 Bus1=73 Bus2=76 phases=3 Linecode=4c_70 Length=4.5939 Units=m
New Line.LINE79 Bus1=76 Bus2=80 phases=3 Linecode=4c_70 Length=1.0987 Units=m
New Line.LINE84 Bus1=80 Bus2=85 phases=3 Linecode=4c_70 Length=4.5962 Units=m
New Line.LINE88 Bus1=85 Bus2=89 phases=3 Linecode=4c_70 Length=4.599 Units=m
New Line.LINE92 Bus1=89 Bus2=93 phases=3 Linecode=4c_.06 Length=2.2794 Units=m
New Line.LINE96 Bus1=93 Bus2=97 phases=3 Linecode=2c_16 Length=9.0916 Units=m
New Line.LINE116 Bus1=111 Bus2=117 phases=3 Linecode=2c_16 Length=5.5869 Units=m
New Line.LINE117 Bus1=111 Bus2=118 phases=3 Linecode=2c_16 Length=5.5869 Units=m
New Line.LINE195 Bus1=191 Bus2=196 phases=3 Linecode=2c_16 Length=13.0753 Units=m
New Line.LINE203 Bus1=199 Bus2=204 phases=3 Linecode=25_SAC_XC Length=7.2987 Units=m
New Line.LINE204 Bus1=199 Bus2=205 phases=3 Linecode=4c_.35 Length=7.5601 Units=m
New Line.LINE208 Bus1=203 Bus2=209 phases=3 Linecode=25_SAC_XC Length=2.6236 Units=m
New Line.LINE209 Bus1=203 Bus2=210 phases=3 Linecode=25_SAC_XC Length=2.6236 Units=m
New Line.LINE210 Bus1=205 Bus2=211 phases=3 Linecode=2c_.0225 Length=1.1442 Units=m
New Line.LINE214 Bus1=211 Bus2=215 phases=3 Linecode=2c_.0225 Length=0.23177 Units=m
New Line.LINE218 Bus1=215 Bus2=219 phases=3 Linecode=2c_.0225 Length=0.19331 Units=m
New Line.LINE222 Bus1=219 Bus2=223 phases=3 Linecode=2c_.0225 Length=0.24015 Units=m
New Line.LINE226 Bus1=223 Bus2=227 phases=3 Linecode=2c_.0225 Length=0.34312 Units=m
New Line.LINE230 Bus1=227 Bus2=231 phases=3 Linecode=2c_.0225 Length=1.5534 Units=m
New Line.LINE234 Bus1=231 Bus2=235 phases=3 Linecode=2c_.0225 Length=0.25258 Units=m
New Line.LINE236 Bus1=233 Bus2=237 phases=3 Linecode=2c_25 Length=2.5957 Units=m
New Line.LINE237 Bus1=233 Bus2=238 phases=3 Linecode=2c_25 Length=2.5957 Units=m
New Line.LINE239 Bus1=235 Bus2=240 phases=3 Linecode=2c_.0225 Length=0.15263 Units=m
New Line.LINE242 Bus1=240 Bus2=243 phases=3 Linecode=2c_.0225 Length=0.16981 Units=m
New Line.LINE245 Bus1=243 Bus2=246 phases=3 Linecode=2c_.0225 Length=1.0526 Units=m
New Line.LINE248 Bus1=246 Bus2=249 phases=3 Linecode=2c_.0225 Length=6.0071 Units=m
New Line.LINE249 Bus1=246 Bus2=250 phases=3 Linecode=2c_.0225 Length=6.0071 Units=m
New Line.LINE329 Bus1=325 Bus2=330 phases=3 Linecode=2c_.04 Length=10.8747 Units=m
New Line.LINE340 Bus1=334 Bus2=341 phases=3 Linecode=2c_.0225 Length=10.134 Units=m
New Line.LINE378 Bus1=373 Bus2=379 phases=3 Linecode=2c_.04 Length=4.177 Units=m
New Line.LINE379 Bus1=373 Bus2=380 phases=3 Linecode=2c_.04 Length=4.177 Units=m
New Line.LINE390 Bus1=385 Bus2=391 phases=3 Linecode=2c_.0225 Length=2.9034 Units=m
New Line.LINE391 Bus1=385 Bus2=392 phases=3 Linecode=2c_.0225 Length=2.9034 Units=m
New Line.LINE398 Bus1=395 Bus2=399 phases=3 Linecode=2c_.0225 Length=3.8513 Units=m
New Line.LINE447 Bus1=443 Bus2=448 phases=3 Linecode=4c_.06 Length=5.0725 Units=m
New Line.LINE453 Bus1=448 Bus2=454 phases=3 Linecode=2c_.04 Length=11.4839 Units=m
New Line.LINE460 Bus1=454 Bus2=461 phases=3 Linecode=2c_.04 Length=0.22522 Units=m
New Line.LINE465 Bus1=461 Bus2=466 phases=3 Linecode=2c_.04 Length=0.1414 Units=m
New Line.LINE479 Bus1=476 Bus2=480 phases=3 Linecode=2c_.04 Length=2.7519 Units=m
New Line.LINE480 Bus1=476 Bus2=481 phases=3 Linecode=2c_.04 Length=2.7519 Units=m
New Line.LINE502 Bus1=502 Bus2=503 phases=3 Linecode=2c_.04 Length=8.1196 Units=m
New Line.LINE503 Bus1=502 Bus2=504 phases=3 Linecode=2c_.04 Length=8.1196 Units=m
New Line.LINECmpd_0 Bus1=334 Bus2=384 phases=3 Linecode=4c_.06 Length=1.721175 Units=m
New Line.LINECmpd_1 Bus1=1 Bus2=65 phases=3 Linecode=4c_70 Length=60.842558 Units=m
New Line.LINECmpd_2 Bus1=120 Bus2=139 phases=3 Linecode=4c_.35 Length=2.89606 Units=m
New Line.LINECmpd_3 Bus1=443 Bus2=488 phases=3 Linecode=2c_.04 Length=9.582 Units=m
New Line.LINECmpd_4 Bus1=488 Bus2=502 phases=3 Linecode=2c_.04 Length=8.15925 Units=m
New Line.LINECmpd_5 Bus1=77 Bus2=111 phases=3 Linecode=2c_16 Length=7.94835 Units=m
New Line.LINECmpd_6 Bus1=123 Bus2=163 phases=3 Linecode=2c_16 Length=14.54087 Units=m
New Line.LINECmpd_7 Bus1=97 Bus2=149 phases=3 Linecode=2c_16 Length=8.38241 Units=m
New Line.LINECmpd_8 Bus1=73 Bus2=190 phases=3 Linecode=2c_16 Length=18.0255 Units=m
New Line.LINECmpd_9 Bus1=399 Bus2=442 phases=3 Linecode=2c_.0225 Length=9.62974 Units=m
New Line.LINECmpd_10 Bus1=139 Bus2=177 phases=3 Linecode=4c_.35 Length=2.02461 Units=m
New Line.LINECmpd_11 Bus1=384 Bus2=459 phases=3 Linecode=2c_.0225 Length=17.53028 Units=m
New Line.LINECmpd_12 Bus1=276 Bus2=299 phases=3 Linecode=2c_16 Length=6.50587 Units=m
New Line.LINECmpd_13 Bus1=191 Bus2=256 phases=3 Linecode=4c_.06 Length=39.21978 Units=m
New Line.LINECmpd_14 Bus1=137 Bus2=191 phases=3 Linecode=4c_.06 Length=24.9551 Units=m
New Line.LINECmpd_15 Bus1=77 Bus2=106 phases=3 Linecode=4c_.35 Length=9.6374 Units=m
New Line.LINECmpd_16 Bus1=262 Bus2=280 phases=3 Linecode=4c_.06 Length=13.24214 Units=m
New Line.LINECmpd_17 Bus1=196 Bus2=255 phases=3 Linecode=2c_16 Length=9.996429 Units=m
New Line.LINECmpd_18 Bus1=419 Bus2=478 phases=3 Linecode=2c_.0225 Length=15.62709 Units=m
New Line.LINECmpd_19 Bus1=196 Bus2=233 phases=3 Linecode=2c_25 Length=8.08534 Units=m
New Line.LINECmpd_20 Bus1=139 Bus2=203 phases=3 Linecode=25_SAC_XC Length=5.46941 Units=m
New Line.LINECmpd_21 Bus1=276 Bus2=307 phases=3 Linecode=2c_16 Length=7.58898 Units=m
New Line.LINECmpd_22 Bus1=93 Bus2=123 phases=3 Linecode=4c_.06 Length=16.4083 Units=m
New Line.LINECmpd_23 Bus1=280 Bus2=325 phases=3 Linecode=4c_.06 Length=34.56723 Units=m
New Line.LINECmpd_24 Bus1=262 Bus2=276 phases=3 Linecode=2c_16 Length=5.44312 Units=m
New Line.LINECmpd_25 Bus1=330 Bus2=373 phases=3 Linecode=2c_.04 Length=2.62955 Units=m
New Line.LINECmpd_26 Bus1=419 Bus2=443 phases=3 Linecode=4c_.06 Length=8.28845 Units=m
New Line.LINECmpd_27 Bus1=106 Bus2=119 phases=3 Linecode=2c_16 Length=4.9173 Units=m
New Line.LINECmpd_28 Bus1=120 Bus2=132 phases=3 Linecode=2c_16 Length=6.8185 Units=m
New Line.LINECmpd_29 Bus1=65 Bus2=77 phases=3 Linecode=4c_.35 Length=7.20437 Units=m
New Line.LINECmpd_30 Bus1=395 Bus2=419 phases=3 Linecode=4c_.06 Length=6.74645 Units=m
New Line.LINECmpd_31 Bus1=341 Bus2=385 phases=3 Linecode=2c_.0225 Length=13.2756 Units=m
New Line.LINECmpd_32 Bus1=177 Bus2=188 phases=3 Linecode=2c_.0225 Length=8.2325 Units=m
New Line.LINECmpd_33 Bus1=177 Bus2=199 phases=3 Linecode=4c_.35 Length=9.76509 Units=m
New Line.LINECmpd_34 Bus1=280 Bus2=288 phases=3 Linecode=2c_.0225 Length=12.4407 Units=m
New Line.LINECmpd_35 Bus1=488 Bus2=493 phases=3 Linecode=2c_.04 Length=9.1964 Units=m
New Line.LINECmpd_36 Bus1=466 Bus2=475 phases=3 Linecode=2c_.04 Length=8.8019 Units=m
New Line.LINECmpd_37 Bus1=256 Bus2=262 phases=3 Linecode=4c_.06 Length=14.6866 Units=m
New Line.LINECmpd_38 Bus1=106 Bus2=120 phases=3 Linecode=4c_.35 Length=12.1716 Units=m
New Line.LINECmpd_39 Bus1=341 Bus2=359 phases=3 Linecode=2c_.0225 Length=5.1158 Units=m
New Line.LINECmpd_40 Bus1=137 Bus2=151 phases=3 Linecode=2c_16 Length=14.1107 Units=m
New Line.LINECmpd_41 Bus1=97 Bus2=109 phases=3 Linecode=2c_16 Length=6.9817 Units=m
New Line.LINECmpd_42 Bus1=466 Bus2=476 phases=3 Linecode=2c_.04 Length=0.84746 Units=m
New Line.LINECmpd_43 Bus1=123 Bus2=137 phases=3 Linecode=4c_.06 Length=3.5684 Units=m
New Line.LINECmpd_44 Bus1=330 Bus2=342 phases=3 Linecode=2c_.0225 Length=7.7846 Units=m
New Line.LINECmpd_45 Bus1=399 Bus2=412 phases=3 Linecode=2c_.0225 Length=6.5449 Units=m
New Line.LINECmpd_46 Bus1=256 Bus2=261 phases=3 Linecode=2c_16 Length=12.9546 Units=m
New Line.LINECmpd_47 Bus1=65 Bus2=73 phases=3 Linecode=4c_70 Length=19.5676 Units=m
New Line.LINECmpd_48 Bus1=384 Bus2=395 phases=3 Linecode=4c_.06 Length=3.98242 Units=m
New Line.LINECmpd_49 Bus1=325 Bus2=334 phases=3 Linecode=4c_.06 Length=12.4756 Units=m
New Line.LINECmpd_50 Bus1=76 Bus2=84 phases=3 Linecode=2c_16 Length=15.4044 Units=m
